# HKUST-1 (Cu-BTC, Cu3(BTC)2)
# Hong Kong University of Science and Technology
# A classical MOF with open metal sites, excellent for gas adsorption
data_HKUST-1
_symmetry_space_group_name_H-M   'F m -3 m'
_symmetry_Int_Tables_number      225
_cell_length_a                   26.343
_cell_length_b                   26.343
_cell_length_c                   26.343
_cell_angle_alpha                90.000
_cell_angle_beta                 90.000
_cell_angle_gamma                90.000

loop_
_atom_site_label
_atom_site_type_symbol
_atom_site_fract_x
_atom_site_fract_y
_atom_site_fract_z
_atom_site_occupancy
Cu1  Cu   0.00000   0.21830   0.21830   1.0
O1   O    0.05300   0.16530   0.16530   1.0
O2   O    0.05300   0.27130   0.27130   1.0
C1   C    0.08220   0.16750   0.21830   1.0
C2   C    0.08220   0.21830   0.16750   1.0
C3   C    0.12520   0.12520   0.21830   1.0
C4   C    0.12520   0.21830   0.12520   1.0
H1   H    0.15530   0.09460   0.21830   1.0
H2   H    0.15530   0.21830   0.09460   1.0
