# HKUST-1 with adsorbed acetylene (C2H2)
# Acetylene positioned near Cu open metal site
# For interaction energy calculations
data_HKUST-1_C2H2
_symmetry_space_group_name_H-M   'P 1'
_symmetry_Int_Tables_number      1
_cell_length_a                   26.343
_cell_length_b                   26.343
_cell_length_c                   26.343
_cell_angle_alpha                90.000
_cell_angle_beta                 90.000
_cell_angle_gamma                90.000

loop_
_atom_site_label
_atom_site_type_symbol
_atom_site_fract_x
_atom_site_fract_y
_atom_site_fract_z
_atom_site_occupancy
# Cu paddlewheel cluster
Cu1  Cu   0.00000   0.21830   0.21830   1.0
Cu2  Cu   0.00000   0.28170   0.28170   1.0
O1   O    0.05300   0.16530   0.16530   1.0
O2   O    0.05300   0.27130   0.27130   1.0
O3   O    0.05300   0.33470   0.33470   1.0
O4   O    0.05300   0.22870   0.22870   1.0
C1   C    0.08220   0.16750   0.21830   1.0
C2   C    0.08220   0.21830   0.16750   1.0
C3   C    0.08220   0.33250   0.28170   1.0
C4   C    0.08220   0.28170   0.33250   1.0
C5   C    0.12520   0.12520   0.21830   1.0
C6   C    0.12520   0.21830   0.12520   1.0
C7   C    0.12520   0.37480   0.28170   1.0
C8   C    0.12520   0.28170   0.37480   1.0
H1   H    0.15530   0.09460   0.21830   1.0
H2   H    0.15530   0.21830   0.09460   1.0
H3   H    0.15530   0.40540   0.28170   1.0
H4   H    0.15530   0.28170   0.40540   1.0
# Adsorbed acetylene near Cu site
C_ac1  C   0.00000   0.16000   0.16000   1.0
C_ac2  C   0.00000   0.14000   0.14000   1.0
H_ac1  H   0.00000   0.18000   0.18000   1.0
H_ac2  H   0.00000   0.12000   0.12000   1.0
